
 OpenBabel08301816053D

 27  0  0  0  0  0  0  0  0  0999 V2000
  -10.0000  -10.0000  -10.0000 O   0  0  0  0  0  0  0  0  0  0  0  0
  -10.0000  -10.0000    0.0000 O   0  0  0  0  0  0  0  0  0  0  0  0
  -10.0000  -10.0000   10.0000 O   0  0  0  0  0  0  0  0  0  0  0  0
  -10.0000    0.0000  -10.0000 O   0  0  0  0  0  0  0  0  0  0  0  0
  -10.0000    0.0000    0.0000 O   0  0  0  0  0  0  0  0  0  0  0  0
  -10.0000    0.0000   10.0000 O   0  0  0  0  0  0  0  0  0  0  0  0
  -10.0000   10.0000  -10.0000 O   0  0  0  0  0  0  0  0  0  0  0  0
  -10.0000   10.0000    0.0000 O   0  0  0  0  0  0  0  0  0  0  0  0
  -10.0000   10.0000   10.0000 O   0  0  0  0  0  0  0  0  0  0  0  0
    0.0000  -10.0000  -10.0000 O   0  0  0  0  0  0  0  0  0  0  0  0
    0.0000  -10.0000    0.0000 O   0  0  0  0  0  0  0  0  0  0  0  0
    0.0000  -10.0000   10.0000 O   0  0  0  0  0  0  0  0  0  0  0  0
    0.0000    0.0000  -10.0000 O   0  0  0  0  0  0  0  0  0  0  0  0
    0.0000    0.0000    0.0000 O   0  0  0  0  0  0  0  0  0  0  0  0
    0.0000    0.0000   10.0000 O   0  0  0  0  0  0  0  0  0  0  0  0
    0.0000   10.0000  -10.0000 O   0  0  0  0  0  0  0  0  0  0  0  0
    0.0000   10.0000    0.0000 O   0  0  0  0  0  0  0  0  0  0  0  0
    0.0000   10.0000   10.0000 O   0  0  0  0  0  0  0  0  0  0  0  0
   10.0000  -10.0000  -10.0000 O   0  0  0  0  0  0  0  0  0  0  0  0
   10.0000  -10.0000    0.0000 O   0  0  0  0  0  0  0  0  0  0  0  0
   10.0000  -10.0000   10.0000 O   0  0  0  0  0  0  0  0  0  0  0  0
   10.0000    0.0000  -10.0000 O   0  0  0  0  0  0  0  0  0  0  0  0
   10.0000    0.0000    0.0000 O   0  0  0  0  0  0  0  0  0  0  0  0
   10.0000    0.0000   10.0000 O   0  0  0  0  0  0  0  0  0  0  0  0
   10.0000   10.0000  -10.0000 O   0  0  0  0  0  0  0  0  0  0  0  0
   10.0000   10.0000    0.0000 O   0  0  0  0  0  0  0  0  0  0  0  0
   10.0000   10.0000   10.0000 O   0  0  0  0  0  0  0  0  0  0  0  0
M  END
$$$$
