
     RDKit          3D

 25 27  0  0  1  0  0  0  0  0999 V2000
   -0.1906   -3.5131   28.4255 N   0  0  0  0  0  0  0  0  0  0  0  0
   -0.6851   -4.5056   29.3165 C   0  0  0  0  0  0  0  0  0  0  0  0
   -0.2153   -5.8924   28.9684 C   0  0  2  0  0  0  0  0  0  0  0  0
    1.4082   -6.4498   27.0037 C   0  0  0  0  0  0  0  0  0  0  0  0
    2.1467   -5.9214   25.9315 C   0  0  0  0  0  0  0  0  0  0  0  0
    2.1153   -4.5386   25.6559 C   0  0  0  0  0  0  0  0  0  0  0  0
    1.3471   -3.6728   26.4525 C   0  0  0  0  0  0  0  0  0  0  0  0
    0.6193   -4.2217   27.5073 C   0  0  0  0  0  0  0  0  0  0  0  0
    0.6422   -5.5759   27.7782 C   0  0  0  0  0  0  0  0  0  0  0  0
   -1.4161   -4.2290   30.3046 O   0  0  0  0  0  0  0  0  0  0  0  0
   -1.3659   -6.7801   28.5988 C   0  0  0  0  0  0  0  0  0  0  0  0
   -2.1661   -7.2184   29.5236 N   0  0  0  0  0  0  0  0  0  0  0  0
   -3.2859   -8.0928   29.3141 C   0  0  0  0  0  0  0  0  0  0  0  0
   -3.3776   -8.9472   28.1975 C   0  0  0  0  0  0  0  0  0  0  0  0
   -4.4701   -9.8069   28.0566 C   0  0  0  0  0  0  0  0  0  0  0  0
   -5.4809   -9.8294   29.0235 C   0  0  0  0  0  0  0  0  0  0  0  0
   -5.3927   -8.9826   30.1367 C   0  0  0  0  0  0  0  0  0  0  0  0
   -4.2952   -8.1297   30.2844 C   0  0  0  0  0  0  0  0  0  0  0  0
   -6.8288  -10.9494   28.8447 S   0  0  0  0  0  6  0  0  0  0  0  0
   -7.7212  -10.9167   30.0539 O   0  0  0  0  0  0  0  0  0  0  0  0
   -7.6340  -10.5494   27.6404 O   0  0  0  0  0  0  0  0  0  0  0  0
   -6.2299  -12.5628   28.6145 N   0  0  0  0  0  0  0  0  0  0  0  0
   -5.4856  -13.2270   29.4534 C   0  0  0  0  0  0  0  0  0  0  0  0
   -5.0504  -14.5403   29.1013 N   0  0  0  0  0  0  0  0  0  0  0  0
   -5.0841  -12.6745   30.7144 N   0  0  0  0  0  0  0  0  0  0  0  0
  1  2  1  0
  1  8  1  0
  2  3  1  0
  2 10  2  0
  3  9  1  0
  3 11  1  6
  4  5  1  0
  4  9  2  0
  5  6  2  0
  6  7  1  0
  7  8  2  0
  8  9  1  0
 11 12  2  0
 12 13  1  0
 13 14  2  0
 13 18  1  0
 14 15  1  0
 15 16  2  0
 16 17  1  0
 16 19  1  0
 17 18  2  0
 19 20  2  0
 19 21  2  0
 19 22  1  0
 22 23  2  3
 23 24  1  0
 23 25  1  0
M  END
$$$$